34

Au 0.978177  -0.550667  -2.426284
Au 2.138990  -5.240599  -3.474369
Au 4.903693  -4.292328  -3.521457
Au 0.696563  -3.808332  -5.381354
Au 2.568752  -1.476369  -0.064408
Au 2.434041  3.047216  -3.033412
Au 4.927068  -0.227685  -0.710003
Au -1.172227  -1.945408  -4.441479
Au 5.549243  0.382825  -5.341960
Au 5.867556  -1.676395  -3.219885
Au 0.395756  2.087204  -4.656385
Au 4.773488  -3.019891  -1.013637
Au 2.418906  -2.567057  -7.411277
Au 0.049288  -2.879538  0.075810
Au 5.076738  2.882314  -4.131657
Au 3.530456  0.372769  -3.221745
Au -0.198127  -1.788772  -7.092535
Au 2.463549  1.327579  -0.537975
Au -1.613448  -1.489274  -1.682126
Au -1.462384  0.402832  -6.024868
Au 4.759980  -2.249318  -5.721024
Au 3.002931  2.106988  -5.708254
Au 3.662943  -0.099046  -7.268015
Au 1.770987  -0.815771  -5.105179
Au 0.044809  -3.649103  -2.586687
Au 2.267147  -4.164660  -0.893726
Au 6.505437  0.897663  -2.734535
Au 0.098434  2.110101  -1.794272
Au -1.652148  0.683533  -3.336772
Au 4.733908  2.571345  -1.351957
Au 3.360277  -4.618720  -5.854935
Au 0.067429  0.211901  0.227487
Au 2.885461  -2.415145  -3.191183
Au 1.023249  0.839199  -7.248973








