47
 
Au -1.282320   0.303763   1.099570
Au -0.121508   -4.386169   0.051485
Au 2.643196   -3.437898   0.004397
Au -1.563935   -2.953902   -1.855500
Au 0.308254   -0.621939   3.461446
Au 0.173543   3.901646   0.492442
Au 2.666571   0.626745   2.815851
Au -3.432724   -1.090978   -0.915626
Au 3.288745   1.237255   -1.816106
Au 3.607059   -0.821965   0.305969
Au -1.864742   2.941634   -1.130531
Au 2.512990   -2.165461   2.512217
Au 0.158408   -1.712627   -3.885423
Au -2.211210   -2.025108   3.601664
Au 2.816240   3.736744   -0.605803
Au 1.269958   1.227199   0.304109
Au -2.458625   -0.934342   -3.566681
Au 0.203051   2.182009   2.987879
Au -3.873946   -0.634844   1.843728
Au -3.722882   1.257262   -2.499014
Au 2.499483   -1.394888   -2.195170
Au 0.742434   2.961418   -2.182400
Au 1.402445   0.755384   -3.742161
Au -0.489511   0.038659   -1.579325
Au -2.215688   -2.794673   0.939167
Au 0.006649   -3.310230   2.632128
Au 4.244939   1.752093   0.791319
Au -2.162064   2.964531   1.731582
Au -3.912646   1.537963   0.189082
Au 2.473411   3.425775   2.173897
Au 1.099779   -3.764290   -2.329082
Au -2.193069   1.066331   3.753341
Au 0.624964   -1.560715   0.334671
Au -1.237249   1.693629   -3.723119
C   3.226554   4.092752   3.617496 
 C   5.634244   4.349303   4.398916 
 S   6.411914   3.747573   2.862606 
 H   6.086864   2.452743   3.031736 
 O   3.037464   2.943373   3.985776 
 O   2.480754   4.707552   2.661546 
 H   2.866804   5.616133   2.566296 
 C   4.282284   5.046623   4.193556 
 H   6.338764   5.055193   4.851496 
 H   5.531834   3.501533   5.083926 
 N   4.355694   6.265603   3.322676 
 H   3.892864   5.371683   5.165546 
 H   5.111654   6.107623   2.642126 
 