47
 
Au -1.282320   0.303763   1.099570
Au -0.121508   -4.386169   0.051485
Au 2.643196   -3.437898   0.004397
Au -1.563935   -2.953902   -1.855500
Au 0.308254   -0.621939   3.461446
Au 0.173543   3.901646   0.492442
Au 2.666571   0.626745   2.815851
Au -3.432724   -1.090978   -0.915626
Au 3.288745   1.237255   -1.816106
Au 3.607059   -0.821965   0.305969
Au -1.864742   2.941634   -1.130531
Au 2.512990   -2.165461   2.512217
Au 0.158408   -1.712627   -3.885423
Au -2.211210   -2.025108   3.601664
Au 2.816240   3.736744   -0.605803
Au 1.269958   1.227199   0.304109
Au -2.458625   -0.934342   -3.566681
Au 0.203051   2.182009   2.987879
Au -3.873946   -0.634844   1.843728
Au -3.722882   1.257262   -2.499014
Au 2.499483   -1.394888   -2.195170
Au 0.742434   2.961418   -2.182400
Au 1.402445   0.755384   -3.742161
Au -0.489511   0.038659   -1.579325
Au -2.215688   -2.794673   0.939167
Au 0.006649   -3.310230   2.632128
Au 4.244939   1.752093   0.791319
Au -2.162064   2.964531   1.731582
Au -3.912646   1.537963   0.189082
Au 2.473411   3.425775   2.173897
Au 1.099779   -3.764290   -2.329082
Au -2.193069   1.066331   3.753341
Au 0.624964   -1.560715   0.334671
Au -1.237249   1.693629   -3.723119
C   6.550714   -1.331730   4.187354 
 C   5.769294   1.075960   3.930804 
 S   7.305604   1.853630   4.532534 
 H   7.136474   1.528580   5.827364 
 O   6.182434   -1.520820   5.336734 
 O   7.506664   -2.077530   3.572554 
 H   7.601914   -1.691480   2.663974 
 C   5.974654   -0.276000   3.233484 
 H   5.316714   1.780480   3.224914 
 H   5.084284   0.973550   4.778574 
 N   6.845534   -0.202590   2.014504 
 H   5.002664   -0.665420   2.908424 
 H   7.526084   0.553370   2.172484 
 